***********************************************
README for Honda on IGA and FEM results on 
Bpillar and Side Outer Panel
03/04/2021
***********************************************
This folder constains following files:
1. Bpillar and Side Outer Panel geometries (vtk)
2. Bpillar IGA input file for LS-DYNA 
3. Bpillar FEA input file for LS-DYNA 
4. Side Outer Panel IGA input file for LS-DYNA 
5. Side Outer Panel FEA input file for LS-DYNA 
6. Solver

* Simulation needs to use modified LS-DYNA solver 
	ls-dyna_smp_d_Dev_78987_winx64_ifort170
	NEED to use open-source unzip software such as 7-zip


For Bpillar in presentation, compare files in 
the following folders and use eigen Mode 1 in LS-DYNA
(IGA) Bpillar_v22_glb_2_npt_2_t_1.6
(FEA) Bpillar_v22_glb_0_npt_32_t_1.0
For Side outer panel in presentation, compare 
files in the following folders and use eigen Mode 5 in LS-DYNA
(IGA) Side_Panel_glb_0_npt_2_t_1.6
(FEA) SidePanel_glb_0_npt_8_form_2_5layers

